<?xml version="1.0" encoding="UTF-8"?>

<!-- generated on 2025-07-30 17:10:01 by Eclipse SUMO netconvert Version 1.20.0
<configuration xmlns:xsi="http://www.w3.org/2001/XMLSchema-instance" xsi:noNamespaceSchemaLocation="http://sumo.dlr.de/xsd/netconvertConfiguration.xsd">

    <input>
        <node-files value="network/grid.nod.xml"/>
        <edge-files value="network/grid.edg.xml"/>
    </input>

    <output>
        <output-file value="network/grid.net.xml"/>
    </output>

    <tls_building>
        <tls.guess value="true"/>
    </tls_building>

</configuration>
-->

<net version="1.20" junctionCornerDetail="5" limitTurnSpeed="5.50" xmlns:xsi="http://www.w3.org/2001/XMLSchema-instance" xsi:noNamespaceSchemaLocation="http://sumo.dlr.de/xsd/net_file.xsd">

    <location netOffset="300.00,300.00" convBoundary="0.00,0.00,600.00,600.00" origBoundary="-300.00,-300.00,300.00,300.00" projParameter="!"/>

    <edge id=":E1_0" function="internal">
        <lane id=":E1_0_0" index="0" speed="3.65" length="4.67" shape="600.00,398.40 601.20,399.20 601.60,400.00 601.20,400.80 600.00,401.60"/>
    </edge>
    <edge id=":E2_0" function="internal">
        <lane id=":E2_0_0" index="0" speed="3.65" length="4.67" shape="600.00,198.40 601.20,199.20 601.60,200.00 601.20,200.80 600.00,201.60"/>
    </edge>
    <edge id=":N1_0" function="internal">
        <lane id=":N1_0_0" index="0" speed="3.65" length="4.67" shape="201.60,600.00 200.80,601.20 200.00,601.60 199.20,601.20 198.40,600.00"/>
    </edge>
    <edge id=":N2_0" function="internal">
        <lane id=":N2_0_0" index="0" speed="3.65" length="4.67" shape="401.60,600.00 400.80,601.20 400.00,601.60 399.20,601.20 398.40,600.00"/>
    </edge>
    <edge id=":S1_0" function="internal">
        <lane id=":S1_0_0" index="0" speed="3.65" length="4.67" shape="198.40,0.00 199.20,-1.20 200.00,-1.60 200.80,-1.20 201.60,0.00"/>
    </edge>
    <edge id=":S2_0" function="internal">
        <lane id=":S2_0_0" index="0" speed="3.65" length="4.67" shape="398.40,0.00 399.20,-1.20 400.00,-1.60 400.80,-1.20 401.60,0.00"/>
    </edge>
    <edge id=":W1_0" function="internal">
        <lane id=":W1_0_0" index="0" speed="3.65" length="4.67" shape="0.00,401.60 -1.20,400.80 -1.60,400.00 -1.20,399.20 0.00,398.40"/>
    </edge>
    <edge id=":W2_0" function="internal">
        <lane id=":W2_0_0" index="0" speed="3.65" length="4.67" shape="0.00,201.60 -1.20,200.80 -1.60,200.00 -1.20,199.20 0.00,198.40"/>
    </edge>
    <edge id=":c1_1_0" function="internal">
        <lane id=":c1_1_0_0" index="0" speed="6.51" length="9.03" shape="195.20,410.40 194.85,407.95 193.80,406.20 192.05,405.15 189.60,404.80"/>
    </edge>
    <edge id=":c1_1_1" function="internal">
        <lane id=":c1_1_1_0" index="0" speed="13.89" length="20.80" shape="195.20,410.40 195.20,389.60"/>
        <lane id=":c1_1_1_1" index="1" speed="13.89" length="20.80" shape="198.40,410.40 198.40,389.60"/>
    </edge>
    <edge id=":c1_1_3" function="internal">
        <lane id=":c1_1_3_0" index="0" speed="9.26" length="5.01" shape="198.40,410.40 199.11,405.44"/>
    </edge>
    <edge id=":c1_1_4" function="internal">
        <lane id=":c1_1_4_0" index="0" speed="3.65" length="1.44" shape="198.40,410.40 199.20,409.20"/>
    </edge>
    <edge id=":c1_1_20" function="internal">
        <lane id=":c1_1_20_0" index="0" speed="9.26" length="14.34" shape="199.11,405.44 199.15,405.15 201.40,401.40 205.15,399.15 210.40,398.40"/>
    </edge>
    <edge id=":c1_1_21" function="internal">
        <lane id=":c1_1_21_0" index="0" speed="3.65" length="3.23" shape="199.20,409.20 200.00,408.80 200.80,409.20 201.60,410.40"/>
    </edge>
    <edge id=":c1_1_5" function="internal">
        <lane id=":c1_1_5_0" index="0" speed="6.51" length="9.03" shape="210.40,404.80 207.95,405.15 206.20,406.20 205.15,407.95 204.80,410.40"/>
    </edge>
    <edge id=":c1_1_6" function="internal">
        <lane id=":c1_1_6_0" index="0" speed="13.89" length="20.80" shape="210.40,404.80 189.60,404.80"/>
        <lane id=":c1_1_6_1" index="1" speed="13.89" length="20.80" shape="210.40,401.60 189.60,401.60"/>
    </edge>
    <edge id=":c1_1_8" function="internal">
        <lane id=":c1_1_8_0" index="0" speed="9.26" length="5.01" shape="210.40,401.60 205.44,400.89"/>
    </edge>
    <edge id=":c1_1_9" function="internal">
        <lane id=":c1_1_9_0" index="0" speed="3.65" length="1.44" shape="210.40,401.60 209.20,400.80"/>
    </edge>
    <edge id=":c1_1_22" function="internal">
        <lane id=":c1_1_22_0" index="0" speed="9.26" length="14.34" shape="205.44,400.89 205.15,400.85 201.40,398.60 199.15,394.85 198.40,389.60"/>
    </edge>
    <edge id=":c1_1_23" function="internal">
        <lane id=":c1_1_23_0" index="0" speed="3.65" length="3.23" shape="209.20,400.80 208.80,400.00 209.20,399.20 210.40,398.40"/>
    </edge>
    <edge id=":c1_1_10" function="internal">
        <lane id=":c1_1_10_0" index="0" speed="6.51" length="9.03" shape="204.80,389.60 205.15,392.05 206.20,393.80 207.95,394.85 210.40,395.20"/>
    </edge>
    <edge id=":c1_1_11" function="internal">
        <lane id=":c1_1_11_0" index="0" speed="13.89" length="20.80" shape="204.80,389.60 204.80,410.40"/>
        <lane id=":c1_1_11_1" index="1" speed="13.89" length="20.80" shape="201.60,389.60 201.60,410.40"/>
    </edge>
    <edge id=":c1_1_13" function="internal">
        <lane id=":c1_1_13_0" index="0" speed="9.26" length="5.01" shape="201.60,389.60 200.89,394.56"/>
    </edge>
    <edge id=":c1_1_14" function="internal">
        <lane id=":c1_1_14_0" index="0" speed="3.65" length="1.44" shape="201.60,389.60 200.80,390.80"/>
    </edge>
    <edge id=":c1_1_24" function="internal">
        <lane id=":c1_1_24_0" index="0" speed="9.26" length="14.34" shape="200.89,394.56 200.85,394.85 198.60,398.60 194.85,400.85 189.60,401.60"/>
    </edge>
    <edge id=":c1_1_25" function="internal">
        <lane id=":c1_1_25_0" index="0" speed="3.65" length="3.23" shape="200.80,390.80 200.00,391.20 199.20,390.80 198.40,389.60"/>
    </edge>
    <edge id=":c1_1_15" function="internal">
        <lane id=":c1_1_15_0" index="0" speed="6.51" length="9.03" shape="189.60,395.20 192.05,394.85 193.80,393.80 194.85,392.05 195.20,389.60"/>
    </edge>
    <edge id=":c1_1_16" function="internal">
        <lane id=":c1_1_16_0" index="0" speed="13.89" length="20.80" shape="189.60,395.20 210.40,395.20"/>
        <lane id=":c1_1_16_1" index="1" speed="13.89" length="20.80" shape="189.60,398.40 210.40,398.40"/>
    </edge>
    <edge id=":c1_1_18" function="internal">
        <lane id=":c1_1_18_0" index="0" speed="9.26" length="5.01" shape="189.60,398.40 194.56,399.11"/>
    </edge>
    <edge id=":c1_1_19" function="internal">
        <lane id=":c1_1_19_0" index="0" speed="3.65" length="1.44" shape="189.60,398.40 190.80,399.20"/>
    </edge>
    <edge id=":c1_1_26" function="internal">
        <lane id=":c1_1_26_0" index="0" speed="9.26" length="14.34" shape="194.56,399.11 194.85,399.15 198.60,401.40 200.85,405.15 201.60,410.40"/>
    </edge>
    <edge id=":c1_1_27" function="internal">
        <lane id=":c1_1_27_0" index="0" speed="3.65" length="3.23" shape="190.80,399.20 191.20,400.00 190.80,400.80 189.60,401.60"/>
    </edge>
    <edge id=":c1_2_0" function="internal">
        <lane id=":c1_2_0_0" index="0" speed="6.51" length="9.03" shape="395.20,410.40 394.85,407.95 393.80,406.20 392.05,405.15 389.60,404.80"/>
    </edge>
    <edge id=":c1_2_1" function="internal">
        <lane id=":c1_2_1_0" index="0" speed="13.89" length="20.80" shape="395.20,410.40 395.20,389.60"/>
        <lane id=":c1_2_1_1" index="1" speed="13.89" length="20.80" shape="398.40,410.40 398.40,389.60"/>
    </edge>
    <edge id=":c1_2_3" function="internal">
        <lane id=":c1_2_3_0" index="0" speed="9.26" length="5.01" shape="398.40,410.40 399.11,405.44"/>
    </edge>
    <edge id=":c1_2_4" function="internal">
        <lane id=":c1_2_4_0" index="0" speed="3.65" length="1.44" shape="398.40,410.40 399.20,409.20"/>
    </edge>
    <edge id=":c1_2_20" function="internal">
        <lane id=":c1_2_20_0" index="0" speed="9.26" length="14.34" shape="399.11,405.44 399.15,405.15 401.40,401.40 405.15,399.15 410.40,398.40"/>
    </edge>
    <edge id=":c1_2_21" function="internal">
        <lane id=":c1_2_21_0" index="0" speed="3.65" length="3.23" shape="399.20,409.20 400.00,408.80 400.80,409.20 401.60,410.40"/>
    </edge>
    <edge id=":c1_2_5" function="internal">
        <lane id=":c1_2_5_0" index="0" speed="6.51" length="9.03" shape="410.40,404.80 407.95,405.15 406.20,406.20 405.15,407.95 404.80,410.40"/>
    </edge>
    <edge id=":c1_2_6" function="internal">
        <lane id=":c1_2_6_0" index="0" speed="13.89" length="20.80" shape="410.40,404.80 389.60,404.80"/>
        <lane id=":c1_2_6_1" index="1" speed="13.89" length="20.80" shape="410.40,401.60 389.60,401.60"/>
    </edge>
    <edge id=":c1_2_8" function="internal">
        <lane id=":c1_2_8_0" index="0" speed="9.26" length="5.01" shape="410.40,401.60 405.44,400.89"/>
    </edge>
    <edge id=":c1_2_9" function="internal">
        <lane id=":c1_2_9_0" index="0" speed="3.65" length="1.44" shape="410.40,401.60 409.20,400.80"/>
    </edge>
    <edge id=":c1_2_22" function="internal">
        <lane id=":c1_2_22_0" index="0" speed="9.26" length="14.34" shape="405.44,400.89 405.15,400.85 401.40,398.60 399.15,394.85 398.40,389.60"/>
    </edge>
    <edge id=":c1_2_23" function="internal">
        <lane id=":c1_2_23_0" index="0" speed="3.65" length="3.23" shape="409.20,400.80 408.80,400.00 409.20,399.20 410.40,398.40"/>
    </edge>
    <edge id=":c1_2_10" function="internal">
        <lane id=":c1_2_10_0" index="0" speed="6.51" length="9.03" shape="404.80,389.60 405.15,392.05 406.20,393.80 407.95,394.85 410.40,395.20"/>
    </edge>
    <edge id=":c1_2_11" function="internal">
        <lane id=":c1_2_11_0" index="0" speed="13.89" length="20.80" shape="404.80,389.60 404.80,410.40"/>
        <lane id=":c1_2_11_1" index="1" speed="13.89" length="20.80" shape="401.60,389.60 401.60,410.40"/>
    </edge>
    <edge id=":c1_2_13" function="internal">
        <lane id=":c1_2_13_0" index="0" speed="9.26" length="5.01" shape="401.60,389.60 400.89,394.56"/>
    </edge>
    <edge id=":c1_2_14" function="internal">
        <lane id=":c1_2_14_0" index="0" speed="3.65" length="1.44" shape="401.60,389.60 400.80,390.80"/>
    </edge>
    <edge id=":c1_2_24" function="internal">
        <lane id=":c1_2_24_0" index="0" speed="9.26" length="14.34" shape="400.89,394.56 400.85,394.85 398.60,398.60 394.85,400.85 389.60,401.60"/>
    </edge>
    <edge id=":c1_2_25" function="internal">
        <lane id=":c1_2_25_0" index="0" speed="3.65" length="3.23" shape="400.80,390.80 400.00,391.20 399.20,390.80 398.40,389.60"/>
    </edge>
    <edge id=":c1_2_15" function="internal">
        <lane id=":c1_2_15_0" index="0" speed="6.51" length="9.03" shape="389.60,395.20 392.05,394.85 393.80,393.80 394.85,392.05 395.20,389.60"/>
    </edge>
    <edge id=":c1_2_16" function="internal">
        <lane id=":c1_2_16_0" index="0" speed="13.89" length="20.80" shape="389.60,395.20 410.40,395.20"/>
        <lane id=":c1_2_16_1" index="1" speed="13.89" length="20.80" shape="389.60,398.40 410.40,398.40"/>
    </edge>
    <edge id=":c1_2_18" function="internal">
        <lane id=":c1_2_18_0" index="0" speed="9.26" length="5.01" shape="389.60,398.40 394.56,399.11"/>
    </edge>
    <edge id=":c1_2_19" function="internal">
        <lane id=":c1_2_19_0" index="0" speed="3.65" length="1.44" shape="389.60,398.40 390.80,399.20"/>
    </edge>
    <edge id=":c1_2_26" function="internal">
        <lane id=":c1_2_26_0" index="0" speed="9.26" length="14.34" shape="394.56,399.11 394.85,399.15 398.60,401.40 400.85,405.15 401.60,410.40"/>
    </edge>
    <edge id=":c1_2_27" function="internal">
        <lane id=":c1_2_27_0" index="0" speed="3.65" length="3.23" shape="390.80,399.20 391.20,400.00 390.80,400.80 389.60,401.60"/>
    </edge>
    <edge id=":c2_1_0" function="internal">
        <lane id=":c2_1_0_0" index="0" speed="6.51" length="9.03" shape="195.20,210.40 194.85,207.95 193.80,206.20 192.05,205.15 189.60,204.80"/>
    </edge>
    <edge id=":c2_1_1" function="internal">
        <lane id=":c2_1_1_0" index="0" speed="13.89" length="20.80" shape="195.20,210.40 195.20,189.60"/>
        <lane id=":c2_1_1_1" index="1" speed="13.89" length="20.80" shape="198.40,210.40 198.40,189.60"/>
    </edge>
    <edge id=":c2_1_3" function="internal">
        <lane id=":c2_1_3_0" index="0" speed="9.26" length="5.01" shape="198.40,210.40 199.11,205.44"/>
    </edge>
    <edge id=":c2_1_4" function="internal">
        <lane id=":c2_1_4_0" index="0" speed="3.65" length="1.44" shape="198.40,210.40 199.20,209.20"/>
    </edge>
    <edge id=":c2_1_20" function="internal">
        <lane id=":c2_1_20_0" index="0" speed="9.26" length="14.34" shape="199.11,205.44 199.15,205.15 201.40,201.40 205.15,199.15 210.40,198.40"/>
    </edge>
    <edge id=":c2_1_21" function="internal">
        <lane id=":c2_1_21_0" index="0" speed="3.65" length="3.23" shape="199.20,209.20 200.00,208.80 200.80,209.20 201.60,210.40"/>
    </edge>
    <edge id=":c2_1_5" function="internal">
        <lane id=":c2_1_5_0" index="0" speed="6.51" length="9.03" shape="210.40,204.80 207.95,205.15 206.20,206.20 205.15,207.95 204.80,210.40"/>
    </edge>
    <edge id=":c2_1_6" function="internal">
        <lane id=":c2_1_6_0" index="0" speed="13.89" length="20.80" shape="210.40,204.80 189.60,204.80"/>
        <lane id=":c2_1_6_1" index="1" speed="13.89" length="20.80" shape="210.40,201.60 189.60,201.60"/>
    </edge>
    <edge id=":c2_1_8" function="internal">
        <lane id=":c2_1_8_0" index="0" speed="9.26" length="5.01" shape="210.40,201.60 205.44,200.89"/>
    </edge>
    <edge id=":c2_1_9" function="internal">
        <lane id=":c2_1_9_0" index="0" speed="3.65" length="1.44" shape="210.40,201.60 209.20,200.80"/>
    </edge>
    <edge id=":c2_1_22" function="internal">
        <lane id=":c2_1_22_0" index="0" speed="9.26" length="14.34" shape="205.44,200.89 205.15,200.85 201.40,198.60 199.15,194.85 198.40,189.60"/>
    </edge>
    <edge id=":c2_1_23" function="internal">
        <lane id=":c2_1_23_0" index="0" speed="3.65" length="3.23" shape="209.20,200.80 208.80,200.00 209.20,199.20 210.40,198.40"/>
    </edge>
    <edge id=":c2_1_10" function="internal">
        <lane id=":c2_1_10_0" index="0" speed="6.51" length="9.03" shape="204.80,189.60 205.15,192.05 206.20,193.80 207.95,194.85 210.40,195.20"/>
    </edge>
    <edge id=":c2_1_11" function="internal">
        <lane id=":c2_1_11_0" index="0" speed="13.89" length="20.80" shape="204.80,189.60 204.80,210.40"/>
        <lane id=":c2_1_11_1" index="1" speed="13.89" length="20.80" shape="201.60,189.60 201.60,210.40"/>
    </edge>
    <edge id=":c2_1_13" function="internal">
        <lane id=":c2_1_13_0" index="0" speed="9.26" length="5.01" shape="201.60,189.60 200.89,194.56"/>
    </edge>
    <edge id=":c2_1_14" function="internal">
        <lane id=":c2_1_14_0" index="0" speed="3.65" length="1.44" shape="201.60,189.60 200.80,190.80"/>
    </edge>
    <edge id=":c2_1_24" function="internal">
        <lane id=":c2_1_24_0" index="0" speed="9.26" length="14.34" shape="200.89,194.56 200.85,194.85 198.60,198.60 194.85,200.85 189.60,201.60"/>
    </edge>
    <edge id=":c2_1_25" function="internal">
        <lane id=":c2_1_25_0" index="0" speed="3.65" length="3.23" shape="200.80,190.80 200.00,191.20 199.20,190.80 198.40,189.60"/>
    </edge>
    <edge id=":c2_1_15" function="internal">
        <lane id=":c2_1_15_0" index="0" speed="6.51" length="9.03" shape="189.60,195.20 192.05,194.85 193.80,193.80 194.85,192.05 195.20,189.60"/>
    </edge>
    <edge id=":c2_1_16" function="internal">
        <lane id=":c2_1_16_0" index="0" speed="13.89" length="20.80" shape="189.60,195.20 210.40,195.20"/>
        <lane id=":c2_1_16_1" index="1" speed="13.89" length="20.80" shape="189.60,198.40 210.40,198.40"/>
    </edge>
    <edge id=":c2_1_18" function="internal">
        <lane id=":c2_1_18_0" index="0" speed="9.26" length="5.01" shape="189.60,198.40 194.56,199.11"/>
    </edge>
    <edge id=":c2_1_19" function="internal">
        <lane id=":c2_1_19_0" index="0" speed="3.65" length="1.44" shape="189.60,198.40 190.80,199.20"/>
    </edge>
    <edge id=":c2_1_26" function="internal">
        <lane id=":c2_1_26_0" index="0" speed="9.26" length="14.34" shape="194.56,199.11 194.85,199.15 198.60,201.40 200.85,205.15 201.60,210.40"/>
    </edge>
    <edge id=":c2_1_27" function="internal">
        <lane id=":c2_1_27_0" index="0" speed="3.65" length="3.23" shape="190.80,199.20 191.20,200.00 190.80,200.80 189.60,201.60"/>
    </edge>
    <edge id=":c2_2_0" function="internal">
        <lane id=":c2_2_0_0" index="0" speed="6.51" length="9.03" shape="395.20,210.40 394.85,207.95 393.80,206.20 392.05,205.15 389.60,204.80"/>
    </edge>
    <edge id=":c2_2_1" function="internal">
        <lane id=":c2_2_1_0" index="0" speed="13.89" length="20.80" shape="395.20,210.40 395.20,189.60"/>
        <lane id=":c2_2_1_1" index="1" speed="13.89" length="20.80" shape="398.40,210.40 398.40,189.60"/>
    </edge>
    <edge id=":c2_2_3" function="internal">
        <lane id=":c2_2_3_0" index="0" speed="9.26" length="5.01" shape="398.40,210.40 399.11,205.44"/>
    </edge>
    <edge id=":c2_2_4" function="internal">
        <lane id=":c2_2_4_0" index="0" speed="3.65" length="1.44" shape="398.40,210.40 399.20,209.20"/>
    </edge>
    <edge id=":c2_2_20" function="internal">
        <lane id=":c2_2_20_0" index="0" speed="9.26" length="14.34" shape="399.11,205.44 399.15,205.15 401.40,201.40 405.15,199.15 410.40,198.40"/>
    </edge>
    <edge id=":c2_2_21" function="internal">
        <lane id=":c2_2_21_0" index="0" speed="3.65" length="3.23" shape="399.20,209.20 400.00,208.80 400.80,209.20 401.60,210.40"/>
    </edge>
    <edge id=":c2_2_5" function="internal">
        <lane id=":c2_2_5_0" index="0" speed="6.51" length="9.03" shape="410.40,204.80 407.95,205.15 406.20,206.20 405.15,207.95 404.80,210.40"/>
    </edge>
    <edge id=":c2_2_6" function="internal">
        <lane id=":c2_2_6_0" index="0" speed="13.89" length="20.80" shape="410.40,204.80 389.60,204.80"/>
        <lane id=":c2_2_6_1" index="1" speed="13.89" length="20.80" shape="410.40,201.60 389.60,201.60"/>
    </edge>
    <edge id=":c2_2_8" function="internal">
        <lane id=":c2_2_8_0" index="0" speed="9.26" length="5.01" shape="410.40,201.60 405.44,200.89"/>
    </edge>
    <edge id=":c2_2_9" function="internal">
        <lane id=":c2_2_9_0" index="0" speed="3.65" length="1.44" shape="410.40,201.60 409.20,200.80"/>
    </edge>
    <edge id=":c2_2_22" function="internal">
        <lane id=":c2_2_22_0" index="0" speed="9.26" length="14.34" shape="405.44,200.89 405.15,200.85 401.40,198.60 399.15,194.85 398.40,189.60"/>
    </edge>
    <edge id=":c2_2_23" function="internal">
        <lane id=":c2_2_23_0" index="0" speed="3.65" length="3.23" shape="409.20,200.80 408.80,200.00 409.20,199.20 410.40,198.40"/>
    </edge>
    <edge id=":c2_2_10" function="internal">
        <lane id=":c2_2_10_0" index="0" speed="6.51" length="9.03" shape="404.80,189.60 405.15,192.05 406.20,193.80 407.95,194.85 410.40,195.20"/>
    </edge>
    <edge id=":c2_2_11" function="internal">
        <lane id=":c2_2_11_0" index="0" speed="13.89" length="20.80" shape="404.80,189.60 404.80,210.40"/>
        <lane id=":c2_2_11_1" index="1" speed="13.89" length="20.80" shape="401.60,189.60 401.60,210.40"/>
    </edge>
    <edge id=":c2_2_13" function="internal">
        <lane id=":c2_2_13_0" index="0" speed="9.26" length="5.01" shape="401.60,189.60 400.89,194.56"/>
    </edge>
    <edge id=":c2_2_14" function="internal">
        <lane id=":c2_2_14_0" index="0" speed="3.65" length="1.44" shape="401.60,189.60 400.80,190.80"/>
    </edge>
    <edge id=":c2_2_24" function="internal">
        <lane id=":c2_2_24_0" index="0" speed="9.26" length="14.34" shape="400.89,194.56 400.85,194.85 398.60,198.60 394.85,200.85 389.60,201.60"/>
    </edge>
    <edge id=":c2_2_25" function="internal">
        <lane id=":c2_2_25_0" index="0" speed="3.65" length="3.23" shape="400.80,190.80 400.00,191.20 399.20,190.80 398.40,189.60"/>
    </edge>
    <edge id=":c2_2_15" function="internal">
        <lane id=":c2_2_15_0" index="0" speed="6.51" length="9.03" shape="389.60,195.20 392.05,194.85 393.80,193.80 394.85,192.05 395.20,189.60"/>
    </edge>
    <edge id=":c2_2_16" function="internal">
        <lane id=":c2_2_16_0" index="0" speed="13.89" length="20.80" shape="389.60,195.20 410.40,195.20"/>
        <lane id=":c2_2_16_1" index="1" speed="13.89" length="20.80" shape="389.60,198.40 410.40,198.40"/>
    </edge>
    <edge id=":c2_2_18" function="internal">
        <lane id=":c2_2_18_0" index="0" speed="9.26" length="5.01" shape="389.60,198.40 394.56,199.11"/>
    </edge>
    <edge id=":c2_2_19" function="internal">
        <lane id=":c2_2_19_0" index="0" speed="3.65" length="1.44" shape="389.60,198.40 390.80,199.20"/>
    </edge>
    <edge id=":c2_2_26" function="internal">
        <lane id=":c2_2_26_0" index="0" speed="9.26" length="14.34" shape="394.56,199.11 394.85,199.15 398.60,201.40 400.85,205.15 401.60,210.40"/>
    </edge>
    <edge id=":c2_2_27" function="internal">
        <lane id=":c2_2_27_0" index="0" speed="3.65" length="3.23" shape="390.80,199.20 391.20,200.00 390.80,200.80 389.60,201.60"/>
    </edge>

    <edge id="c1_1_to_c1_2" from="c1_1" to="c1_2" priority="-1">
        <lane id="c1_1_to_c1_2_0" index="0" speed="13.89" length="179.20" shape="210.40,395.20 389.60,395.20"/>
        <lane id="c1_1_to_c1_2_1" index="1" speed="13.89" length="179.20" shape="210.40,398.40 389.60,398.40"/>
    </edge>
    <edge id="c1_1_to_c2_1" from="c1_1" to="c2_1" priority="-1">
        <lane id="c1_1_to_c2_1_0" index="0" speed="13.89" length="179.20" shape="195.20,389.60 195.20,210.40"/>
        <lane id="c1_1_to_c2_1_1" index="1" speed="13.89" length="179.20" shape="198.40,389.60 198.40,210.40"/>
    </edge>
    <edge id="c1_2_to_c1_1" from="c1_2" to="c1_1" priority="-1">
        <lane id="c1_2_to_c1_1_0" index="0" speed="13.89" length="179.20" shape="389.60,404.80 210.40,404.80"/>
        <lane id="c1_2_to_c1_1_1" index="1" speed="13.89" length="179.20" shape="389.60,401.60 210.40,401.60"/>
    </edge>
    <edge id="c1_2_to_c2_2" from="c1_2" to="c2_2" priority="-1">
        <lane id="c1_2_to_c2_2_0" index="0" speed="13.89" length="179.20" shape="395.20,389.60 395.20,210.40"/>
        <lane id="c1_2_to_c2_2_1" index="1" speed="13.89" length="179.20" shape="398.40,389.60 398.40,210.40"/>
    </edge>
    <edge id="c2_1_to_c1_1" from="c2_1" to="c1_1" priority="-1">
        <lane id="c2_1_to_c1_1_0" index="0" speed="13.89" length="179.20" shape="204.80,210.40 204.80,389.60"/>
        <lane id="c2_1_to_c1_1_1" index="1" speed="13.89" length="179.20" shape="201.60,210.40 201.60,389.60"/>
    </edge>
    <edge id="c2_1_to_c2_2" from="c2_1" to="c2_2" priority="-1">
        <lane id="c2_1_to_c2_2_0" index="0" speed="13.89" length="179.20" shape="210.40,195.20 389.60,195.20"/>
        <lane id="c2_1_to_c2_2_1" index="1" speed="13.89" length="179.20" shape="210.40,198.40 389.60,198.40"/>
    </edge>
    <edge id="c2_2_to_c1_2" from="c2_2" to="c1_2" priority="-1">
        <lane id="c2_2_to_c1_2_0" index="0" speed="13.89" length="179.20" shape="404.80,210.40 404.80,389.60"/>
        <lane id="c2_2_to_c1_2_1" index="1" speed="13.89" length="179.20" shape="401.60,210.40 401.60,389.60"/>
    </edge>
    <edge id="c2_2_to_c2_1" from="c2_2" to="c2_1" priority="-1">
        <lane id="c2_2_to_c2_1_0" index="0" speed="13.89" length="179.20" shape="389.60,204.80 210.40,204.80"/>
        <lane id="c2_2_to_c2_1_1" index="1" speed="13.89" length="179.20" shape="389.60,201.60 210.40,201.60"/>
    </edge>
    <edge id="entry_E1" from="E1" to="c1_2" priority="-1">
        <lane id="entry_E1_0" index="0" speed="13.89" length="189.60" shape="600.00,404.80 410.40,404.80"/>
        <lane id="entry_E1_1" index="1" speed="13.89" length="189.60" shape="600.00,401.60 410.40,401.60"/>
    </edge>
    <edge id="entry_E2" from="E2" to="c2_2" priority="-1">
        <lane id="entry_E2_0" index="0" speed="13.89" length="189.60" shape="600.00,204.80 410.40,204.80"/>
        <lane id="entry_E2_1" index="1" speed="13.89" length="189.60" shape="600.00,201.60 410.40,201.60"/>
    </edge>
    <edge id="entry_N1" from="N1" to="c1_1" priority="-1">
        <lane id="entry_N1_0" index="0" speed="13.89" length="189.60" shape="195.20,600.00 195.20,410.40"/>
        <lane id="entry_N1_1" index="1" speed="13.89" length="189.60" shape="198.40,600.00 198.40,410.40"/>
    </edge>
    <edge id="entry_N2" from="N2" to="c1_2" priority="-1">
        <lane id="entry_N2_0" index="0" speed="13.89" length="189.60" shape="395.20,600.00 395.20,410.40"/>
        <lane id="entry_N2_1" index="1" speed="13.89" length="189.60" shape="398.40,600.00 398.40,410.40"/>
    </edge>
    <edge id="entry_S1" from="S1" to="c2_1" priority="-1">
        <lane id="entry_S1_0" index="0" speed="13.89" length="189.60" shape="204.80,0.00 204.80,189.60"/>
        <lane id="entry_S1_1" index="1" speed="13.89" length="189.60" shape="201.60,0.00 201.60,189.60"/>
    </edge>
    <edge id="entry_S2" from="S2" to="c2_2" priority="-1">
        <lane id="entry_S2_0" index="0" speed="13.89" length="189.60" shape="404.80,0.00 404.80,189.60"/>
        <lane id="entry_S2_1" index="1" speed="13.89" length="189.60" shape="401.60,0.00 401.60,189.60"/>
    </edge>
    <edge id="entry_W1" from="W1" to="c1_1" priority="-1">
        <lane id="entry_W1_0" index="0" speed="13.89" length="189.60" shape="0.00,395.20 189.60,395.20"/>
        <lane id="entry_W1_1" index="1" speed="13.89" length="189.60" shape="0.00,398.40 189.60,398.40"/>
    </edge>
    <edge id="entry_W2" from="W2" to="c2_1" priority="-1">
        <lane id="entry_W2_0" index="0" speed="13.89" length="189.60" shape="0.00,195.20 189.60,195.20"/>
        <lane id="entry_W2_1" index="1" speed="13.89" length="189.60" shape="0.00,198.40 189.60,198.40"/>
    </edge>
    <edge id="exit_E1" from="c1_2" to="E1" priority="-1">
        <lane id="exit_E1_0" index="0" speed="13.89" length="189.60" shape="410.40,395.20 600.00,395.20"/>
        <lane id="exit_E1_1" index="1" speed="13.89" length="189.60" shape="410.40,398.40 600.00,398.40"/>
    </edge>
    <edge id="exit_E2" from="c2_2" to="E2" priority="-1">
        <lane id="exit_E2_0" index="0" speed="13.89" length="189.60" shape="410.40,195.20 600.00,195.20"/>
        <lane id="exit_E2_1" index="1" speed="13.89" length="189.60" shape="410.40,198.40 600.00,198.40"/>
    </edge>
    <edge id="exit_N1" from="c1_1" to="N1" priority="-1">
        <lane id="exit_N1_0" index="0" speed="13.89" length="189.60" shape="204.80,410.40 204.80,600.00"/>
        <lane id="exit_N1_1" index="1" speed="13.89" length="189.60" shape="201.60,410.40 201.60,600.00"/>
    </edge>
    <edge id="exit_N2" from="c1_2" to="N2" priority="-1">
        <lane id="exit_N2_0" index="0" speed="13.89" length="189.60" shape="404.80,410.40 404.80,600.00"/>
        <lane id="exit_N2_1" index="1" speed="13.89" length="189.60" shape="401.60,410.40 401.60,600.00"/>
    </edge>
    <edge id="exit_S1" from="c2_1" to="S1" priority="-1">
        <lane id="exit_S1_0" index="0" speed="13.89" length="189.60" shape="195.20,189.60 195.20,0.00"/>
        <lane id="exit_S1_1" index="1" speed="13.89" length="189.60" shape="198.40,189.60 198.40,0.00"/>
    </edge>
    <edge id="exit_S2" from="c2_2" to="S2" priority="-1">
        <lane id="exit_S2_0" index="0" speed="13.89" length="189.60" shape="395.20,189.60 395.20,0.00"/>
        <lane id="exit_S2_1" index="1" speed="13.89" length="189.60" shape="398.40,189.60 398.40,0.00"/>
    </edge>
    <edge id="exit_W1" from="c1_1" to="W1" priority="-1">
        <lane id="exit_W1_0" index="0" speed="13.89" length="189.60" shape="189.60,404.80 0.00,404.80"/>
        <lane id="exit_W1_1" index="1" speed="13.89" length="189.60" shape="189.60,401.60 0.00,401.60"/>
    </edge>
    <edge id="exit_W2" from="c2_1" to="W2" priority="-1">
        <lane id="exit_W2_0" index="0" speed="13.89" length="189.60" shape="189.60,204.80 0.00,204.80"/>
        <lane id="exit_W2_1" index="1" speed="13.89" length="189.60" shape="189.60,201.60 0.00,201.60"/>
    </edge>

    <tlLogic id="c1_1" type="static" programID="0" offset="0">
        <phase duration="42" state="GGGggrrrrrGGGggrrrrr"/>
        <phase duration="3"  state="yyyyyrrrrryyyyyrrrrr"/>
        <phase duration="42" state="rrrrrGGGggrrrrrGGGgg"/>
        <phase duration="3"  state="rrrrryyyyyrrrrryyyyy"/>
    </tlLogic>
    <tlLogic id="c1_2" type="static" programID="0" offset="0">
        <phase duration="42" state="GGGggrrrrrGGGggrrrrr"/>
        <phase duration="3"  state="yyyyyrrrrryyyyyrrrrr"/>
        <phase duration="42" state="rrrrrGGGggrrrrrGGGgg"/>
        <phase duration="3"  state="rrrrryyyyyrrrrryyyyy"/>
    </tlLogic>
    <tlLogic id="c2_1" type="static" programID="0" offset="0">
        <phase duration="42" state="GGGggrrrrrGGGggrrrrr"/>
        <phase duration="3"  state="yyyyyrrrrryyyyyrrrrr"/>
        <phase duration="42" state="rrrrrGGGggrrrrrGGGgg"/>
        <phase duration="3"  state="rrrrryyyyyrrrrryyyyy"/>
    </tlLogic>
    <tlLogic id="c2_2" type="static" programID="0" offset="0">
        <phase duration="42" state="GGGggrrrrrGGGggrrrrr"/>
        <phase duration="3"  state="yyyyyrrrrryyyyyrrrrr"/>
        <phase duration="42" state="rrrrrGGGggrrrrrGGGgg"/>
        <phase duration="3"  state="rrrrryyyyyrrrrryyyyy"/>
    </tlLogic>

    <junction id="E1" type="priority" x="600.00" y="400.00" incLanes="exit_E1_0 exit_E1_1" intLanes=":E1_0_0" shape="600.00,400.00 600.00,393.60 600.00,400.00">
        <request index="0" response="0" foes="0" cont="0"/>
    </junction>