<nodes>
    <node id="c1_1" x="-100" y="100" type="traffic_light"/> <node id="c1_2" x="100"  y="100" type="traffic_light"/>
    <node id="c2_1" x="-100" y="-100" type="traffic_light"/> <node id="c2_2" x="100"  y="-100" type="traffic_light"/>
    <node id="N1" x="-100" y="300" /> <node id="N2" x="100"  y="300" />
    <node id="S1" x="-100" y="-300" /> <node id="S2" x="100"  y="-300" />
    <node id="W1" x="-300" y="100" /> <node id="W2" x="-300" y="-100" />
    <node id="E1" x="300"  y="100" /> <node id="E2" x="300"  y="-100" />
</nodes>
