<routes>
    <vType id="car" accel="2.6" decel="4.5" length="5" maxSpeed="20" color="1,0.8,0"/>
    <vType id="truck" accel="1.5" decel="3.5" length="7.5" maxSpeed="15" color="0.2,0.8,0.2"/>
    <route id="route_W1_E1" edges="entry_W1 c1_1_to_c1_2 exit_E1"/>
    <route id="route_N1_S1" edges="entry_N1 c1_1_to_c2_1 exit_S1"/>
    <route id="route_E2_W2" edges="entry_E2 c2_2_to_c2_1 exit_W2"/>
    <route id="route_left_turn_N1_W2" edges="entry_N1 c1_1_to_c2_1 exit_W2"/>
    <flow id="flow_W1_E1" type="car" route="route_W1_E1" begin="0" end="1800" period="4"/>
    <flow id="flow_N1_S1" type="truck" route="route_N1_S1" begin="0" end="1800" period="10"/>
    <flow id="flow_E2_W2" type="car" route="route_E2_W2" begin="0" end="1800" period="7"/>
    <flow id="flow_left_turn" type="car" route="route_left_turn_N1_W2" begin="0" end="1800" period="12"/>
</routes>
